.title RC Filter - Invalid Directive
.include
R1 in out 4.7k
C1 out gnd 10p
V1 in gnd 5
.tran 10p 10n
.end
